<additional xmlns:xsi="http://www.w3.org/2001/XMLSchema-instance" xsi:noNamespaceSchemaLocation="http://sumo.dlr.de/xsd/additional_file.xsd">
    <laneAreaDetector file="NUL" freq="60" friendlyPos="x" id="e2det--htddj_gsndj--gsndj_n7--gsndj_n7_0--s" lane="gsndj_n7_0" pos="497.93999999999994" length="200"/>
    <laneAreaDetector file="NUL" freq="60" friendlyPos="x" id="e2det--htddj_gsndj--gsndj_n7--gsndj_n7_1--s" lane="gsndj_n7_1" pos="497.93999999999994" length="200"/>
    <laneAreaDetector file="NUL" freq="60" friendlyPos="x" id="e2det--htddj_gsndj--gsndj_n7--gsndj_n7_2--s" lane="gsndj_n7_2" pos="497.93999999999994" length="200"/>
    <laneAreaDetector file="NUL" freq="60" friendlyPos="x" id="e2det--htddj_gsndj--gsndj_n7--gsndj_n7_3--l" lane="gsndj_n7_3" pos="497.93999999999994" length="200"/>
    <laneAreaDetector file="NUL" freq="60" friendlyPos="x" id="e2det--htddj_gsndj--161701303#7.248--161701303#7.248_0--r" lane="161701303#7.248_0" pos="344.05999999999995" length="200"/>
    <laneAreaDetector file="NUL" freq="60" friendlyPos="x" id="e2det--htddj_gsndj--161701303#7.248--161701303#7.248_1--l" lane="161701303#7.248_1" pos="344.05999999999995" length="200"/>
    <laneAreaDetector file="NUL" freq="60" friendlyPos="x" id="e2det--htddj_gsndj--161701303#7.248--161701303#7.248_2--l" lane="161701303#7.248_2" pos="344.05999999999995" length="200"/>
    <laneAreaDetector file="NUL" freq="60" friendlyPos="x" id="e2det--htddj_gsndj--161701303#7.248--161701303#7.248_3--l" lane="161701303#7.248_3" pos="344.05999999999995" length="200"/>
    <laneAreaDetector file="NUL" freq="60" friendlyPos="x" id="e2det--htddj_gsndj--gsndj_s4--gsndj_s4_0--rrr" lane="gsndj_s4_0" pos="504.39" length="200"/>
    <laneAreaDetector file="NUL" freq="60" friendlyPos="x" id="e2det--htddj_gsndj--gsndj_s4--gsndj_s4_1--s" lane="gsndj_s4_1" pos="504.39" length="200"/>
    <laneAreaDetector file="NUL" freq="60" friendlyPos="x" id="e2det--htddj_gsndj--gsndj_s4--gsndj_s4_2--s" lane="gsndj_s4_2" pos="504.39" length="200"/>
    <laneAreaDetector file="NUL" freq="60" friendlyPos="x" id="e2det--htddj_gsndj--gsndj_s4--gsndj_s4_3--s" lane="gsndj_s4_3" pos="504.39" length="200"/>
</additional>
