<?xml version="1.0" encoding="UTF-8"?>

<!-- generated on 2022-09-17 17:06:26 by Eclipse SUMO jtrrouter Version 1.14.1
<configuration xmlns:xsi="http://www.w3.org/2001/XMLSchema-instance" xsi:noNamespaceSchemaLocation="http://sumo.dlr.de/xsd/jtrrouterConfiguration.xsd">

    <input>
        <net-file value="/mnt/d/ubuntu_project/ActionsVSScenarios/nets/./TJunction/env/4phases.net.xml"/>
        <route-files value="/mnt/d/ubuntu_project/ActionsVSScenarios/nets/./test.trip.xml"/>
        <turn-ratio-files value="/mnt/d/ubuntu_project/ActionsVSScenarios/nets/./test.turndefs.xml"/>
    </input>

    <output>
        <output-file value="/mnt/d/ubuntu_project/ActionsVSScenarios/nets/./routes/0.rou.xml"/>
    </output>

    <processing>
        <randomize-flows value="true"/>
        <accept-all-destinations value="true"/>
    </processing>

    <defaults>
        <departlane value="random"/>
    </defaults>

    <report>
        <no-warnings value="true"/>
    </report>

    <random_number>
        <seed value="10"/>
    </random_number>

</configuration>
-->

<routes xmlns:xsi="http://www.w3.org/2001/XMLSchema-instance" xsi:noNamespaceSchemaLocation="http://sumo.dlr.de/xsd/routes_file.xsd">
    <vType id="car_1" length="7.00" color="26,188,156" tau="1.0"/>
    <vehicle id="161701303#7.248__0.0" type="car_1" depart="1.37" departLane="random">
        <route edges="161701303#7.248 gsndj_n6"/>
    </vehicle>
    <vehicle id="161701303#7.248__0.1" type="car_1" depart="1.83" departLane="random">
        <route edges="161701303#7.248 gsndj_n6"/>
    </vehicle>
    <vehicle id="gsndj_s4__0.0" type="car_1" depart="2.10" departLane="random">
        <route edges="gsndj_s4 gsndj_s5"/>
    </vehicle>
    <vehicle id="gsndj_s4__0.1" type="car_1" depart="6.90" departLane="random">
        <route edges="gsndj_s4 gsndj_s5"/>
    </vehicle>
    <vehicle id="gsndj_s4__0.2" type="car_1" depart="7.29" departLane="random">
        <route edges="gsndj_s4 29257863#5"/>
    </vehicle>
    <vehicle id="161701303#7.248__0.2" type="car_1" depart="8.28" departLane="random">
        <route edges="161701303#7.248 gsndj_n6"/>
    </vehicle>
    <vehicle id="161701303#7.248__0.3" type="car_1" depart="8.29" departLane="random">
        <route edges="161701303#7.248 gsndj_n6"/>
    </vehicle>
    <vehicle id="gsndj_n7__0.0" type="car_1" depart="9.22" departLane="random">
        <route edges="gsndj_n7 gsndj_n6"/>
    </vehicle>
    <vehicle id="gsndj_n7__0.1" type="car_1" depart="9.29" departLane="random">
        <route edges="gsndj_n7 gsndj_n6"/>
    </vehicle>
    <vehicle id="gsndj_n7__0.2" type="car_1" depart="9.37" departLane="random">
        <route edges="gsndj_n7 29257863#5"/>
    </vehicle>
    <vehicle id="gsndj_n7__0.3" type="car_1" depart="10.20" departLane="random">
        <route edges="gsndj_n7 gsndj_n6"/>
    </vehicle>
    <vehicle id="gsndj_n7__0.4" type="car_1" depart="10.74" departLane="random">
        <route edges="gsndj_n7 29257863#5"/>
    </vehicle>
    <vehicle id="gsndj_s4__0.3" type="car_1" depart="11.32" departLane="random">
        <route edges="gsndj_s4 gsndj_s5"/>
    </vehicle>
    <vehicle id="gsndj_s4__0.4" type="car_1" depart="12.30" departLane="random">
        <route edges="gsndj_s4 gsndj_s5"/>
    </vehicle>
    <vehicle id="gsndj_s4__0.5" type="car_1" depart="14.00" departLane="random">
        <route edges="gsndj_s4 29257863#5"/>
    </vehicle>
    <vehicle id="gsndj_s4__0.6" type="car_1" depart="15.81" departLane="random">
        <route edges="gsndj_s4 29257863#5"/>
    </vehicle>
    <vehicle id="gsndj_s4__0.7" type="car_1" depart="16.05" departLane="random">
        <route edges="gsndj_s4 gsndj_s5"/>
    </vehicle>
    <vehicle id="gsndj_n7__0.5" type="car_1" depart="16.24" departLane="random">
        <route edges="gsndj_n7 29257863#5"/>
    </vehicle>
    <vehicle id="gsndj_s4__0.8" type="car_1" depart="16.79" departLane="random">
        <route edges="gsndj_s4 gsndj_s5"/>
    </vehicle>
    <vehicle id="gsndj_s4__0.9" type="car_1" depart="17.04" departLane="random">
        <route edges="gsndj_s4 gsndj_s5"/>
    </vehicle>
    <vehicle id="gsndj_n7__0.6" type="car_1" depart="17.67" departLane="random">
        <route edges="gsndj_n7 gsndj_n6"/>
    </vehicle>
    <vehicle id="gsndj_n7__0.7" type="car_1" depart="17.90" departLane="random">
        <route edges="gsndj_n7 29257863#5"/>
    </vehicle>
    <vehicle id="gsndj_s4__0.10" type="car_1" depart="24.42" departLane="random">
        <route edges="gsndj_s4 gsndj_s5"/>
    </vehicle>
    <vehicle id="gsndj_s4__0.11" type="car_1" depart="25.55" departLane="random">
        <route edges="gsndj_s4 29257863#5"/>
    </vehicle>
    <vehicle id="gsndj_n7__0.8" type="car_1" depart="28.02" departLane="random">
        <route edges="gsndj_n7 gsndj_n6"/>
    </vehicle>
    <vehicle id="161701303#7.248__0.4" type="car_1" depart="28.18" departLane="random">
        <route edges="161701303#7.248 gsndj_s5"/>
    </vehicle>
    <vehicle id="gsndj_n7__0.9" type="car_1" depart="28.71" departLane="random">
        <route edges="gsndj_n7 29257863#5"/>
    </vehicle>
    <vehicle id="gsndj_s4__0.12" type="car_1" depart="28.75" departLane="random">
        <route edges="gsndj_s4 gsndj_s5"/>
    </vehicle>
    <vehicle id="gsndj_n7__0.10" type="car_1" depart="29.20" departLane="random">
        <route edges="gsndj_n7 29257863#5"/>
    </vehicle>
    <vehicle id="gsndj_n7__0.11" type="car_1" depart="31.21" departLane="random">
        <route edges="gsndj_n7 gsndj_n6"/>
    </vehicle>
    <vehicle id="161701303#7.248__0.5" type="car_1" depart="31.55" departLane="random">
        <route edges="161701303#7.248 gsndj_n6"/>
    </vehicle>
    <vehicle id="gsndj_s4__0.13" type="car_1" depart="32.29" departLane="random">
        <route edges="gsndj_s4 gsndj_s5"/>
    </vehicle>
    <vehicle id="gsndj_s4__0.14" type="car_1" depart="33.34" departLane="random">
        <route edges="gsndj_s4 29257863#5"/>
    </vehicle>
    <vehicle id="161701303#7.248__0.6" type="car_1" depart="35.47" departLane="random">
        <route edges="161701303#7.248 gsndj_n6"/>
    </vehicle>
    <vehicle id="gsndj_s4__0.15" type="car_1" depart="36.18" departLane="random">
        <route edges="gsndj_s4 gsndj_s5"/>
    </vehicle>
    <vehicle id="gsndj_s4__0.16" type="car_1" depart="36.70" departLane="random">
        <route edges="gsndj_s4 gsndj_s5"/>
    </vehicle>
    <vehicle id="gsndj_n7__0.12" type="car_1" depart="37.60" departLane="random">
        <route edges="gsndj_n7 29257863#5"/>
    </vehicle>
    <vehicle id="gsndj_n7__0.13" type="car_1" depart="38.42" departLane="random">
        <route edges="gsndj_n7 gsndj_n6"/>
    </vehicle>
    <vehicle id="gsndj_n7__0.14" type="car_1" depart="40.06" departLane="random">
        <route edges="gsndj_n7 gsndj_n6"/>
    </vehicle>
    <vehicle id="gsndj_n7__0.15" type="car_1" depart="40.06" departLane="random">
        <route edges="gsndj_n7 gsndj_n6"/>
    </vehicle>
    <vehicle id="161701303#7.248__0.7" type="car_1" depart="40.26" departLane="random">
        <route edges="161701303#7.248 gsndj_n6"/>
    </vehicle>
    <vehicle id="gsndj_n7__0.16" type="car_1" depart="42.91" departLane="random">
        <route edges="gsndj_n7 gsndj_n6"/>
    </vehicle>
    <vehicle id="gsndj_n7__0.17" type="car_1" depart="43.00" departLane="random">
        <route edges="gsndj_n7 29257863#5"/>
    </vehicle>
    <vehicle id="gsndj_n7__0.18" type="car_1" depart="47.48" departLane="random">
        <route edges="gsndj_n7 gsndj_n6"/>
    </vehicle>
    <vehicle id="gsndj_n7__0.19" type="car_1" depart="48.55" departLane="random">
        <route edges="gsndj_n7 gsndj_n6"/>
    </vehicle>
    <vehicle id="gsndj_s4__0.17" type="car_1" depart="49.39" departLane="random">
        <route edges="gsndj_s4 gsndj_s5"/>
    </vehicle>
    <vehicle id="161701303#7.248__0.8" type="car_1" depart="49.44" departLane="random">
        <route edges="161701303#7.248 gsndj_s5"/>
    </vehicle>
    <vehicle id="gsndj_n7__0.20" type="car_1" depart="50.50" departLane="random">
        <route edges="gsndj_n7 gsndj_n6"/>
    </vehicle>
    <vehicle id="gsndj_s4__0.18" type="car_1" depart="50.56" departLane="random">
        <route edges="gsndj_s4 29257863#5"/>
    </vehicle>
    <vehicle id="gsndj_s4__0.19" type="car_1" depart="51.60" departLane="random">
        <route edges="gsndj_s4 29257863#5"/>
    </vehicle>
    <vehicle id="gsndj_s4__0.20" type="car_1" depart="53.60" departLane="random">
        <route edges="gsndj_s4 gsndj_s5"/>
    </vehicle>
    <vehicle id="gsndj_n7__0.21" type="car_1" depart="55.55" departLane="random">
        <route edges="gsndj_n7 29257863#5"/>
    </vehicle>
    <vehicle id="gsndj_n7__1.0" type="car_1" depart="61.16" departLane="random">
        <route edges="gsndj_n7 gsndj_n6"/>
    </vehicle>
    <vehicle id="161701303#7.248__1.0" type="car_1" depart="61.27" departLane="random">
        <route edges="161701303#7.248 gsndj_n6"/>
    </vehicle>
    <vehicle id="161701303#7.248__1.1" type="car_1" depart="61.53" departLane="random">
        <route edges="161701303#7.248 gsndj_n6"/>
    </vehicle>
    <vehicle id="gsndj_n7__1.1" type="car_1" depart="61.68" departLane="random">
        <route edges="gsndj_n7 29257863#5"/>
    </vehicle>
    <vehicle id="161701303#7.248__1.2" type="car_1" depart="64.58" departLane="random">
        <route edges="161701303#7.248 gsndj_n6"/>
    </vehicle>
    <vehicle id="gsndj_n7__1.2" type="car_1" depart="65.19" departLane="random">
        <route edges="gsndj_n7 29257863#5"/>
    </vehicle>
    <vehicle id="gsndj_n7__1.3" type="car_1" depart="67.06" departLane="random">
        <route edges="gsndj_n7 29257863#5"/>
    </vehicle>
    <vehicle id="gsndj_s4__1.0" type="car_1" depart="67.35" departLane="random">
        <route edges="gsndj_s4 29257863#5"/>
    </vehicle>
    <vehicle id="gsndj_n7__1.4" type="car_1" depart="67.56" departLane="random">
        <route edges="gsndj_n7 gsndj_n6"/>
    </vehicle>
    <vehicle id="gsndj_s4__1.1" type="car_1" depart="69.58" departLane="random">
        <route edges="gsndj_s4 gsndj_s5"/>
    </vehicle>
    <vehicle id="gsndj_s4__1.2" type="car_1" depart="70.03" departLane="random">
        <route edges="gsndj_s4 gsndj_s5"/>
    </vehicle>
    <vehicle id="161701303#7.248__1.3" type="car_1" depart="70.37" departLane="random">
        <route edges="161701303#7.248 gsndj_s5"/>
    </vehicle>
    <vehicle id="gsndj_n7__1.5" type="car_1" depart="73.98" departLane="random">
        <route edges="gsndj_n7 gsndj_n6"/>
    </vehicle>
    <vehicle id="gsndj_s4__1.3" type="car_1" depart="74.81" departLane="random">
        <route edges="gsndj_s4 29257863#5"/>
    </vehicle>
    <vehicle id="gsndj_n7__1.6" type="car_1" depart="75.43" departLane="random">
        <route edges="gsndj_n7 29257863#5"/>
    </vehicle>
    <vehicle id="gsndj_s4__1.4" type="car_1" depart="76.22" departLane="random">
        <route edges="gsndj_s4 gsndj_s5"/>
    </vehicle>
    <vehicle id="gsndj_s4__1.5" type="car_1" depart="76.43" departLane="random">
        <route edges="gsndj_s4 gsndj_s5"/>
    </vehicle>
    <vehicle id="gsndj_s4__1.6" type="car_1" depart="76.74" departLane="random">
        <route edges="gsndj_s4 gsndj_s5"/>
    </vehicle>
    <vehicle id="gsndj_n7__1.7" type="car_1" depart="77.01" departLane="random">
        <route edges="gsndj_n7 29257863#5"/>
    </vehicle>
    <vehicle id="gsndj_s4__1.7" type="car_1" depart="78.44" departLane="random">
        <route edges="gsndj_s4 gsndj_s5"/>
    </vehicle>
    <vehicle id="161701303#7.248__1.4" type="car_1" depart="79.03" departLane="random">
        <route edges="161701303#7.248 gsndj_s5"/>
    </vehicle>
    <vehicle id="gsndj_n7__1.8" type="car_1" depart="79.99" departLane="random">
        <route edges="gsndj_n7 29257863#5"/>
    </vehicle>
    <vehicle id="gsndj_n7__1.9" type="car_1" depart="80.88" departLane="random">
        <route edges="gsndj_n7 29257863#5"/>
    </vehicle>
    <vehicle id="161701303#7.248__1.5" type="car_1" depart="81.26" departLane="random">
        <route edges="161701303#7.248 gsndj_n6"/>
    </vehicle>
    <vehicle id="gsndj_n7__1.10" type="car_1" depart="82.54" departLane="random">
        <route edges="gsndj_n7 29257863#5"/>
    </vehicle>
    <vehicle id="gsndj_n7__1.11" type="car_1" depart="83.24" departLane="random">
        <route edges="gsndj_n7 29257863#5"/>
    </vehicle>
    <vehicle id="gsndj_n7__1.12" type="car_1" depart="85.37" departLane="random">
        <route edges="gsndj_n7 gsndj_n6"/>
    </vehicle>
    <vehicle id="gsndj_n7__1.13" type="car_1" depart="86.03" departLane="random">
        <route edges="gsndj_n7 29257863#5"/>
    </vehicle>
    <vehicle id="gsndj_n7__1.14" type="car_1" depart="89.91" departLane="random">
        <route edges="gsndj_n7 gsndj_n6"/>
    </vehicle>
    <vehicle id="gsndj_n7__1.15" type="car_1" depart="90.09" departLane="random">
        <route edges="gsndj_n7 29257863#5"/>
    </vehicle>
    <vehicle id="gsndj_s4__1.8" type="car_1" depart="91.58" departLane="random">
        <route edges="gsndj_s4 gsndj_s5"/>
    </vehicle>
    <vehicle id="gsndj_n7__1.16" type="car_1" depart="95.42" departLane="random">
        <route edges="gsndj_n7 gsndj_n6"/>
    </vehicle>
    <vehicle id="gsndj_s4__1.9" type="car_1" depart="95.46" departLane="random">
        <route edges="gsndj_s4 gsndj_s5"/>
    </vehicle>
    <vehicle id="gsndj_s4__1.10" type="car_1" depart="98.74" departLane="random">
        <route edges="gsndj_s4 gsndj_s5"/>
    </vehicle>
    <vehicle id="161701303#7.248__1.6" type="car_1" depart="99.54" departLane="random">
        <route edges="161701303#7.248 gsndj_n6"/>
    </vehicle>
    <vehicle id="gsndj_n7__1.17" type="car_1" depart="99.71" departLane="random">
        <route edges="gsndj_n7 gsndj_n6"/>
    </vehicle>
    <vehicle id="gsndj_s4__1.11" type="car_1" depart="100.28" departLane="random">
        <route edges="gsndj_s4 29257863#5"/>
    </vehicle>
    <vehicle id="gsndj_s4__1.12" type="car_1" depart="103.30" departLane="random">
        <route edges="gsndj_s4 29257863#5"/>
    </vehicle>
    <vehicle id="gsndj_n7__1.18" type="car_1" depart="103.77" departLane="random">
        <route edges="gsndj_n7 29257863#5"/>
    </vehicle>
    <vehicle id="gsndj_n7__1.19" type="car_1" depart="104.50" departLane="random">
        <route edges="gsndj_n7 29257863#5"/>
    </vehicle>
    <vehicle id="gsndj_n7__1.20" type="car_1" depart="105.13" departLane="random">
        <route edges="gsndj_n7 29257863#5"/>
    </vehicle>
    <vehicle id="161701303#7.248__1.7" type="car_1" depart="107.84" departLane="random">
        <route edges="161701303#7.248 gsndj_s5"/>
    </vehicle>
    <vehicle id="gsndj_s4__1.13" type="car_1" depart="107.89" departLane="random">
        <route edges="gsndj_s4 gsndj_s5"/>
    </vehicle>
    <vehicle id="gsndj_s4__1.14" type="car_1" depart="108.59" departLane="random">
        <route edges="gsndj_s4 gsndj_s5"/>
    </vehicle>
    <vehicle id="gsndj_s4__1.15" type="car_1" depart="111.86" departLane="random">
        <route edges="gsndj_s4 29257863#5"/>
    </vehicle>
    <vehicle id="gsndj_s4__1.16" type="car_1" depart="111.96" departLane="random">
        <route edges="gsndj_s4 gsndj_s5"/>
    </vehicle>
    <vehicle id="gsndj_s4__1.17" type="car_1" depart="112.22" departLane="random">
        <route edges="gsndj_s4 gsndj_s5"/>
    </vehicle>
    <vehicle id="gsndj_n7__1.21" type="car_1" depart="112.57" departLane="random">
        <route edges="gsndj_n7 gsndj_n6"/>
    </vehicle>
    <vehicle id="161701303#7.248__1.8" type="car_1" depart="117.41" departLane="random">
        <route edges="161701303#7.248 gsndj_n6"/>
    </vehicle>
    <vehicle id="161701303#7.248__1.9" type="car_1" depart="118.89" departLane="random">
        <route edges="161701303#7.248 gsndj_n6"/>
    </vehicle>
    <vehicle id="gsndj_s4__1.18" type="car_1" depart="119.46" departLane="random">
        <route edges="gsndj_s4 29257863#5"/>
    </vehicle>
    <vehicle id="gsndj_n7__1.22" type="car_1" depart="119.80" departLane="random">
        <route edges="gsndj_n7 gsndj_n6"/>
    </vehicle>
    <vType id="car_2" length="6.00" color="155,89,182" tau="1.0"/>
    <vehicle id="gsndj_n7__2.0" type="car_2" depart="121.36" departLane="random">
        <route edges="gsndj_n7 gsndj_n6"/>
    </vehicle>
    <vehicle id="gsndj_s4__2.0" type="car_1" depart="123.13" departLane="random">
        <route edges="gsndj_s4 gsndj_s5"/>
    </vehicle>
    <vehicle id="gsndj_n7__2.1" type="car_2" depart="123.63" departLane="random">
        <route edges="gsndj_n7 gsndj_n6"/>
    </vehicle>
    <vehicle id="gsndj_s4__2.1" type="car_1" depart="125.49" departLane="random">
        <route edges="gsndj_s4 29257863#5"/>
    </vehicle>
    <vehicle id="gsndj_s4__2.2" type="car_1" depart="127.91" departLane="random">
        <route edges="gsndj_s4 gsndj_s5"/>
    </vehicle>
    <vehicle id="161701303#7.248__2.0" type="car_1" depart="128.59" departLane="random">
        <route edges="161701303#7.248 gsndj_s5"/>
    </vehicle>
    <vehicle id="gsndj_s4__2.3" type="car_1" depart="131.32" departLane="random">
        <route edges="gsndj_s4 gsndj_s5"/>
    </vehicle>
    <vehicle id="gsndj_s4__2.4" type="car_1" depart="133.07" departLane="random">
        <route edges="gsndj_s4 29257863#5"/>
    </vehicle>
    <vehicle id="gsndj_s4__2.5" type="car_1" depart="133.55" departLane="random">
        <route edges="gsndj_s4 29257863#5"/>
    </vehicle>
    <vehicle id="gsndj_n7__2.2" type="car_2" depart="133.90" departLane="random">
        <route edges="gsndj_n7 gsndj_n6"/>
    </vehicle>
    <vehicle id="gsndj_n7__2.3" type="car_2" depart="134.52" departLane="random">
        <route edges="gsndj_n7 29257863#5"/>
    </vehicle>
    <vehicle id="gsndj_n7__2.4" type="car_2" depart="134.87" departLane="random">
        <route edges="gsndj_n7 gsndj_n6"/>
    </vehicle>
    <vehicle id="gsndj_n7__2.5" type="car_2" depart="134.98" departLane="random">
        <route edges="gsndj_n7 29257863#5"/>
    </vehicle>
    <vehicle id="gsndj_n7__2.6" type="car_2" depart="137.30" departLane="random">
        <route edges="gsndj_n7 gsndj_n6"/>
    </vehicle>
    <vehicle id="gsndj_s4__2.6" type="car_1" depart="137.31" departLane="random">
        <route edges="gsndj_s4 29257863#5"/>
    </vehicle>
    <vehicle id="gsndj_n7__2.7" type="car_2" depart="139.18" departLane="random">
        <route edges="gsndj_n7 gsndj_n6"/>
    </vehicle>
    <vehicle id="gsndj_n7__2.8" type="car_2" depart="139.23" departLane="random">
        <route edges="gsndj_n7 gsndj_n6"/>
    </vehicle>
    <vehicle id="161701303#7.248__2.1" type="car_1" depart="141.86" departLane="random">
        <route edges="161701303#7.248 gsndj_n6"/>
    </vehicle>
    <vehicle id="gsndj_n7__2.9" type="car_2" depart="142.84" departLane="random">
        <route edges="gsndj_n7 gsndj_n6"/>
    </vehicle>
    <vehicle id="gsndj_s4__2.7" type="car_1" depart="143.89" departLane="random">
        <route edges="gsndj_s4 29257863#5"/>
    </vehicle>
    <vehicle id="gsndj_n7__2.10" type="car_2" depart="144.23" departLane="random">
        <route edges="gsndj_n7 gsndj_n6"/>
    </vehicle>
    <vehicle id="gsndj_n7__2.11" type="car_2" depart="144.56" departLane="random">
        <route edges="gsndj_n7 gsndj_n6"/>
    </vehicle>
    <vehicle id="gsndj_s4__2.8" type="car_1" depart="146.10" departLane="random">
        <route edges="gsndj_s4 29257863#5"/>
    </vehicle>
    <vehicle id="gsndj_s4__2.9" type="car_1" depart="148.06" departLane="random">
        <route edges="gsndj_s4 gsndj_s5"/>
    </vehicle>
    <vehicle id="gsndj_n7__2.12" type="car_2" depart="148.63" departLane="random">
        <route edges="gsndj_n7 29257863#5"/>
    </vehicle>
    <vehicle id="gsndj_s4__2.10" type="car_1" depart="149.36" departLane="random">
        <route edges="gsndj_s4 gsndj_s5"/>
    </vehicle>
    <vehicle id="gsndj_n7__2.13" type="car_2" depart="150.32" departLane="random">
        <route edges="gsndj_n7 gsndj_n6"/>
    </vehicle>
    <vehicle id="gsndj_n7__2.14" type="car_2" depart="150.63" departLane="random">
        <route edges="gsndj_n7 29257863#5"/>
    </vehicle>
    <vehicle id="gsndj_s4__2.11" type="car_1" depart="150.81" departLane="random">
        <route edges="gsndj_s4 29257863#5"/>
    </vehicle>
    <vehicle id="gsndj_n7__2.15" type="car_2" depart="152.08" departLane="random">
        <route edges="gsndj_n7 29257863#5"/>
    </vehicle>
    <vehicle id="gsndj_n7__2.16" type="car_2" depart="154.31" departLane="random">
        <route edges="gsndj_n7 gsndj_n6"/>
    </vehicle>
    <vehicle id="161701303#7.248__2.2" type="car_1" depart="155.98" departLane="random">
        <route edges="161701303#7.248 gsndj_n6"/>
    </vehicle>
    <vehicle id="gsndj_n7__2.17" type="car_2" depart="157.61" departLane="random">
        <route edges="gsndj_n7 gsndj_n6"/>
    </vehicle>
    <vehicle id="gsndj_s4__2.12" type="car_1" depart="159.70" departLane="random">
        <route edges="gsndj_s4 29257863#5"/>
    </vehicle>
    <vehicle id="161701303#7.248__2.3" type="car_1" depart="160.15" departLane="random">
        <route edges="161701303#7.248 gsndj_n6"/>
    </vehicle>
    <vehicle id="gsndj_n7__2.18" type="car_2" depart="160.72" departLane="random">
        <route edges="gsndj_n7 gsndj_n6"/>
    </vehicle>
    <vehicle id="gsndj_s4__2.13" type="car_1" depart="160.88" departLane="random">
        <route edges="gsndj_s4 29257863#5"/>
    </vehicle>
    <vehicle id="161701303#7.248__2.4" type="car_1" depart="161.98" departLane="random">
        <route edges="161701303#7.248 gsndj_n6"/>
    </vehicle>
    <vehicle id="161701303#7.248__2.5" type="car_1" depart="167.23" departLane="random">
        <route edges="161701303#7.248 gsndj_s5"/>
    </vehicle>
    <vehicle id="gsndj_n7__2.19" type="car_2" depart="167.82" departLane="random">
        <route edges="gsndj_n7 29257863#5"/>
    </vehicle>
    <vehicle id="gsndj_s4__2.14" type="car_1" depart="168.17" departLane="random">
        <route edges="gsndj_s4 gsndj_s5"/>
    </vehicle>
    <vehicle id="gsndj_s4__2.15" type="car_1" depart="168.65" departLane="random">
        <route edges="gsndj_s4 gsndj_s5"/>
    </vehicle>
    <vehicle id="gsndj_n7__2.20" type="car_2" depart="169.38" departLane="random">
        <route edges="gsndj_n7 29257863#5"/>
    </vehicle>
    <vehicle id="gsndj_s4__2.16" type="car_1" depart="170.26" departLane="random">
        <route edges="gsndj_s4 29257863#5"/>
    </vehicle>
    <vehicle id="gsndj_n7__2.21" type="car_2" depart="171.56" departLane="random">
        <route edges="gsndj_n7 gsndj_n6"/>
    </vehicle>
    <vehicle id="gsndj_n7__2.22" type="car_2" depart="171.76" departLane="random">
        <route edges="gsndj_n7 gsndj_n6"/>
    </vehicle>
    <vehicle id="gsndj_n7__2.23" type="car_2" depart="172.02" departLane="random">
        <route edges="gsndj_n7 gsndj_n6"/>
    </vehicle>
    <vehicle id="161701303#7.248__2.6" type="car_1" depart="173.92" departLane="random">
        <route edges="161701303#7.248 gsndj_s5"/>
    </vehicle>
    <vehicle id="gsndj_s4__2.17" type="car_1" depart="176.56" departLane="random">
        <route edges="gsndj_s4 gsndj_s5"/>
    </vehicle>
    <vehicle id="161701303#7.248__2.7" type="car_1" depart="177.63" departLane="random">
        <route edges="161701303#7.248 gsndj_n6"/>
    </vehicle>
    <vehicle id="161701303#7.248__3.0" type="car_1" depart="181.28" departLane="random">
        <route edges="161701303#7.248 gsndj_n6"/>
    </vehicle>
    <vehicle id="gsndj_n7__3.0" type="car_2" depart="183.68" departLane="random">
        <route edges="gsndj_n7 29257863#5"/>
    </vehicle>
    <vehicle id="gsndj_n7__3.1" type="car_2" depart="184.45" departLane="random">
        <route edges="gsndj_n7 29257863#5"/>
    </vehicle>
    <vehicle id="161701303#7.248__3.1" type="car_1" depart="184.97" departLane="random">
        <route edges="161701303#7.248 gsndj_s5"/>
    </vehicle>
    <vehicle id="gsndj_n7__3.2" type="car_2" depart="186.11" departLane="random">
        <route edges="gsndj_n7 gsndj_n6"/>
    </vehicle>
    <vehicle id="161701303#7.248__3.2" type="car_1" depart="191.93" departLane="random">
        <route edges="161701303#7.248 gsndj_s5"/>
    </vehicle>
    <vehicle id="gsndj_s4__3.0" type="car_1" depart="191.95" departLane="random">
        <route edges="gsndj_s4 gsndj_s5"/>
    </vehicle>
    <vehicle id="161701303#7.248__3.3" type="car_1" depart="193.44" departLane="random">
        <route edges="161701303#7.248 gsndj_n6"/>
    </vehicle>
    <vehicle id="gsndj_n7__3.3" type="car_2" depart="193.68" departLane="random">
        <route edges="gsndj_n7 gsndj_n6"/>
    </vehicle>
    <vehicle id="gsndj_s4__3.1" type="car_1" depart="195.43" departLane="random">
        <route edges="gsndj_s4 gsndj_s5"/>
    </vehicle>
    <vehicle id="161701303#7.248__3.4" type="car_1" depart="196.80" departLane="random">
        <route edges="161701303#7.248 gsndj_n6"/>
    </vehicle>
    <vehicle id="161701303#7.248__3.5" type="car_1" depart="197.37" departLane="random">
        <route edges="161701303#7.248 gsndj_n6"/>
    </vehicle>
    <vehicle id="gsndj_n7__3.4" type="car_2" depart="197.49" departLane="random">
        <route edges="gsndj_n7 29257863#5"/>
    </vehicle>
    <vehicle id="gsndj_s4__3.2" type="car_1" depart="201.40" departLane="random">
        <route edges="gsndj_s4 29257863#5"/>
    </vehicle>
    <vehicle id="gsndj_n7__3.5" type="car_2" depart="202.25" departLane="random">
        <route edges="gsndj_n7 gsndj_n6"/>
    </vehicle>
    <vehicle id="gsndj_s4__3.3" type="car_1" depart="203.18" departLane="random">
        <route edges="gsndj_s4 29257863#5"/>
    </vehicle>
    <vehicle id="gsndj_s4__3.4" type="car_1" depart="204.28" departLane="random">
        <route edges="gsndj_s4 29257863#5"/>
    </vehicle>
    <vehicle id="gsndj_n7__3.6" type="car_2" depart="205.97" departLane="random">
        <route edges="gsndj_n7 29257863#5"/>
    </vehicle>
    <vehicle id="gsndj_s4__3.5" type="car_1" depart="206.34" departLane="random">
        <route edges="gsndj_s4 29257863#5"/>
    </vehicle>
    <vehicle id="gsndj_n7__3.7" type="car_2" depart="206.56" departLane="random">
        <route edges="gsndj_n7 29257863#5"/>
    </vehicle>
    <vehicle id="gsndj_s4__3.6" type="car_1" depart="207.23" departLane="random">
        <route edges="gsndj_s4 29257863#5"/>
    </vehicle>
    <vehicle id="gsndj_s4__3.7" type="car_1" depart="207.36" departLane="random">
        <route edges="gsndj_s4 gsndj_s5"/>
    </vehicle>
    <vehicle id="gsndj_s4__3.8" type="car_1" depart="208.12" departLane="random">
        <route edges="gsndj_s4 29257863#5"/>
    </vehicle>
    <vehicle id="gsndj_s4__3.9" type="car_1" depart="208.40" departLane="random">
        <route edges="gsndj_s4 29257863#5"/>
    </vehicle>
    <vehicle id="gsndj_n7__3.8" type="car_2" depart="209.12" departLane="random">
        <route edges="gsndj_n7 gsndj_n6"/>
    </vehicle>
    <vehicle id="gsndj_s4__3.10" type="car_1" depart="212.17" departLane="random">
        <route edges="gsndj_s4 gsndj_s5"/>
    </vehicle>
    <vehicle id="gsndj_s4__3.11" type="car_1" depart="213.23" departLane="random">
        <route edges="gsndj_s4 29257863#5"/>
    </vehicle>
    <vehicle id="gsndj_n7__3.9" type="car_2" depart="213.30" departLane="random">
        <route edges="gsndj_n7 gsndj_n6"/>
    </vehicle>
    <vehicle id="gsndj_n7__3.10" type="car_2" depart="214.88" departLane="random">
        <route edges="gsndj_n7 gsndj_n6"/>
    </vehicle>
    <vehicle id="161701303#7.248__3.6" type="car_1" depart="215.14" departLane="random">
        <route edges="161701303#7.248 gsndj_s5"/>
    </vehicle>
    <vehicle id="gsndj_n7__3.11" type="car_2" depart="215.58" departLane="random">
        <route edges="gsndj_n7 29257863#5"/>
    </vehicle>
    <vehicle id="gsndj_s4__3.12" type="car_1" depart="216.20" departLane="random">
        <route edges="gsndj_s4 gsndj_s5"/>
    </vehicle>
    <vehicle id="gsndj_s4__3.13" type="car_1" depart="216.26" departLane="random">
        <route edges="gsndj_s4 29257863#5"/>
    </vehicle>
    <vehicle id="gsndj_n7__3.12" type="car_2" depart="217.07" departLane="random">
        <route edges="gsndj_n7 gsndj_n6"/>
    </vehicle>
    <vehicle id="gsndj_s4__3.14" type="car_1" depart="218.47" departLane="random">
        <route edges="gsndj_s4 29257863#5"/>
    </vehicle>
    <vehicle id="gsndj_n7__3.13" type="car_2" depart="219.33" departLane="random">
        <route edges="gsndj_n7 29257863#5"/>
    </vehicle>
    <vehicle id="161701303#7.248__3.7" type="car_1" depart="220.48" departLane="random">
        <route edges="161701303#7.248 gsndj_n6"/>
    </vehicle>
    <vehicle id="gsndj_s4__3.15" type="car_1" depart="224.81" departLane="random">
        <route edges="gsndj_s4 29257863#5"/>
    </vehicle>
    <vehicle id="gsndj_n7__3.14" type="car_2" depart="224.87" departLane="random">
        <route edges="gsndj_n7 gsndj_n6"/>
    </vehicle>
    <vehicle id="gsndj_s4__3.16" type="car_1" depart="229.11" departLane="random">
        <route edges="gsndj_s4 gsndj_s5"/>
    </vehicle>
    <vehicle id="gsndj_n7__3.15" type="car_2" depart="229.66" departLane="random">
        <route edges="gsndj_n7 29257863#5"/>
    </vehicle>
    <vehicle id="gsndj_n7__3.16" type="car_2" depart="230.77" departLane="random">
        <route edges="gsndj_n7 29257863#5"/>
    </vehicle>
    <vehicle id="gsndj_s4__3.17" type="car_1" depart="231.19" departLane="random">
        <route edges="gsndj_s4 gsndj_s5"/>
    </vehicle>
    <vehicle id="gsndj_n7__3.17" type="car_2" depart="232.98" departLane="random">
        <route edges="gsndj_n7 gsndj_n6"/>
    </vehicle>
    <vehicle id="gsndj_s4__3.18" type="car_1" depart="233.59" departLane="random">
        <route edges="gsndj_s4 29257863#5"/>
    </vehicle>
    <vehicle id="gsndj_s4__3.19" type="car_1" depart="233.93" departLane="random">
        <route edges="gsndj_s4 gsndj_s5"/>
    </vehicle>