<?xml version="1.0" encoding="UTF-8"?>

<!-- generated on 2022-09-17 17:05:47 by Eclipse SUMO jtrrouter Version 1.14.1
<configuration xmlns:xsi="http://www.w3.org/2001/XMLSchema-instance" xsi:noNamespaceSchemaLocation="http://sumo.dlr.de/xsd/jtrrouterConfiguration.xsd">

    <input>
        <net-file value="/mnt/d/ubuntu_project/ActionsVSScenarios/nets/./TJunction/env/4phases.net.xml"/>
        <route-files value="/mnt/d/ubuntu_project/ActionsVSScenarios/nets/./test.trip.xml"/>
        <turn-ratio-files value="/mnt/d/ubuntu_project/ActionsVSScenarios/nets/./test.turndefs.xml"/>
    </input>

    <output>
        <output-file value="/mnt/d/ubuntu_project/ActionsVSScenarios/nets/./routes/0.rou.xml"/>
    </output>

    <processing>
        <randomize-flows value="true"/>
        <accept-all-destinations value="true"/>
    </processing>

    <defaults>
        <departlane value="random"/>
    </defaults>

    <report>
        <no-warnings value="true"/>
    </report>

    <random_number>
        <seed value="10"/>
    </random_number>

</configuration>
-->

<routes xmlns:xsi="http://www.w3.org/2001/XMLSchema-instance" xsi:noNamespaceSchemaLocation="http://sumo.dlr.de/xsd/routes_file.xsd">
    <vType id="car_1" length="7.00" color="26,188,156" tau="1.0"/>
    <vehicle id="gsndj_s4__0.0" type="car_1" depart="2.10" departLane="random">
        <route edges="gsndj_s4 29257863#5"/>
    </vehicle>
    <vehicle id="161701303#7.248__0.0" type="car_1" depart="6.90" departLane="random">
        <route edges="161701303#7.248 gsndj_n6"/>
    </vehicle>
    <vehicle id="gsndj_s4__0.1" type="car_1" depart="7.29" departLane="random">
        <route edges="gsndj_s4 29257863#5"/>
    </vehicle>
    <vehicle id="gsndj_n7__0.0" type="car_1" depart="9.22" departLane="random">
        <route edges="gsndj_n7 29257863#5"/>
    </vehicle>
    <vehicle id="gsndj_n7__0.1" type="car_1" depart="9.29" departLane="random">
        <route edges="gsndj_n7 gsndj_n6"/>
    </vehicle>
    <vehicle id="gsndj_n7__0.2" type="car_1" depart="9.37" departLane="random">
        <route edges="gsndj_n7 gsndj_n6"/>
    </vehicle>
    <vehicle id="gsndj_n7__0.3" type="car_1" depart="10.20" departLane="random">
        <route edges="gsndj_n7 29257863#5"/>
    </vehicle>
    <vehicle id="gsndj_s4__0.2" type="car_1" depart="10.74" departLane="random">
        <route edges="gsndj_s4 gsndj_s5"/>
    </vehicle>
    <vehicle id="161701303#7.248__0.1" type="car_1" depart="11.32" departLane="random">
        <route edges="161701303#7.248 gsndj_n6"/>
    </vehicle>
    <vehicle id="161701303#7.248__0.2" type="car_1" depart="12.30" departLane="random">
        <route edges="161701303#7.248 gsndj_n6"/>
    </vehicle>
    <vehicle id="161701303#7.248__0.3" type="car_1" depart="14.00" departLane="random">
        <route edges="161701303#7.248 gsndj_s5"/>
    </vehicle>
    <vehicle id="161701303#7.248__0.4" type="car_1" depart="15.81" departLane="random">
        <route edges="161701303#7.248 gsndj_n6"/>
    </vehicle>
    <vehicle id="161701303#7.248__0.5" type="car_1" depart="16.05" departLane="random">
        <route edges="161701303#7.248 gsndj_n6"/>
    </vehicle>
    <vehicle id="gsndj_n7__0.4" type="car_1" depart="16.24" departLane="random">
        <route edges="gsndj_n7 29257863#5"/>
    </vehicle>
    <vehicle id="161701303#7.248__0.6" type="car_1" depart="16.79" departLane="random">
        <route edges="161701303#7.248 gsndj_n6"/>
    </vehicle>
    <vehicle id="161701303#7.248__0.7" type="car_1" depart="17.04" departLane="random">
        <route edges="161701303#7.248 gsndj_s5"/>
    </vehicle>
    <vehicle id="gsndj_n7__0.5" type="car_1" depart="17.67" departLane="random">
        <route edges="gsndj_n7 gsndj_n6"/>
    </vehicle>
    <vehicle id="gsndj_n7__0.6" type="car_1" depart="17.90" departLane="random">
        <route edges="gsndj_n7 gsndj_n6"/>
    </vehicle>
    <vehicle id="gsndj_s4__0.3" type="car_1" depart="24.42" departLane="random">
        <route edges="gsndj_s4 gsndj_s5"/>
    </vehicle>
    <vehicle id="gsndj_s4__0.4" type="car_1" depart="25.55" departLane="random">
        <route edges="gsndj_s4 29257863#5"/>
    </vehicle>
    <vehicle id="gsndj_n7__0.7" type="car_1" depart="28.02" departLane="random">
        <route edges="gsndj_n7 gsndj_n6"/>
    </vehicle>
    <vehicle id="gsndj_s4__0.5" type="car_1" depart="28.71" departLane="random">
        <route edges="gsndj_s4 gsndj_s5"/>
    </vehicle>
    <vehicle id="161701303#7.248__0.8" type="car_1" depart="28.75" departLane="random">
        <route edges="161701303#7.248 gsndj_n6"/>
    </vehicle>
    <vehicle id="gsndj_n7__0.8" type="car_1" depart="29.20" departLane="random">
        <route edges="gsndj_n7 29257863#5"/>
    </vehicle>
    <vehicle id="gsndj_s4__0.6" type="car_1" depart="31.21" departLane="random">
        <route edges="gsndj_s4 gsndj_s5"/>
    </vehicle>
    <vehicle id="gsndj_s4__0.7" type="car_1" depart="32.29" departLane="random">
        <route edges="gsndj_s4 gsndj_s5"/>
    </vehicle>
    <vehicle id="gsndj_s4__0.8" type="car_1" depart="33.34" departLane="random">
        <route edges="gsndj_s4 gsndj_s5"/>
    </vehicle>
    <vehicle id="gsndj_s4__0.9" type="car_1" depart="36.18" departLane="random">
        <route edges="gsndj_s4 29257863#5"/>
    </vehicle>
    <vehicle id="gsndj_n7__0.9" type="car_1" depart="37.60" departLane="random">
        <route edges="gsndj_n7 gsndj_n6"/>
    </vehicle>
    <vehicle id="gsndj_s4__0.10" type="car_1" depart="38.42" departLane="random">
        <route edges="gsndj_s4 gsndj_s5"/>
    </vehicle>
    <vehicle id="gsndj_n7__0.10" type="car_1" depart="40.06" departLane="random">
        <route edges="gsndj_n7 gsndj_n6"/>
    </vehicle>
    <vehicle id="gsndj_n7__0.11" type="car_1" depart="40.06" departLane="random">
        <route edges="gsndj_n7 gsndj_n6"/>
    </vehicle>
    <vehicle id="gsndj_n7__0.12" type="car_1" depart="42.91" departLane="random">
        <route edges="gsndj_n7 29257863#5"/>
    </vehicle>
    <vehicle id="gsndj_n7__0.13" type="car_1" depart="43.00" departLane="random">
        <route edges="gsndj_n7 gsndj_n6"/>
    </vehicle>
    <vehicle id="gsndj_s4__0.11" type="car_1" depart="47.48" departLane="random">
        <route edges="gsndj_s4 gsndj_s5"/>
    </vehicle>
    <vehicle id="gsndj_s4__0.12" type="car_1" depart="48.55" departLane="random">
        <route edges="gsndj_s4 29257863#5"/>
    </vehicle>
    <vehicle id="gsndj_s4__0.13" type="car_1" depart="49.39" departLane="random">
        <route edges="gsndj_s4 gsndj_s5"/>
    </vehicle>
    <vehicle id="gsndj_n7__0.14" type="car_1" depart="50.50" departLane="random">
        <route edges="gsndj_n7 29257863#5"/>
    </vehicle>
    <vehicle id="161701303#7.248__0.9" type="car_1" depart="50.56" departLane="random">
        <route edges="161701303#7.248 gsndj_n6"/>
    </vehicle>
    <vehicle id="gsndj_s4__0.14" type="car_1" depart="51.60" departLane="random">
        <route edges="gsndj_s4 gsndj_s5"/>
    </vehicle>
    <vehicle id="gsndj_s4__0.15" type="car_1" depart="53.60" departLane="random">
        <route edges="gsndj_s4 gsndj_s5"/>
    </vehicle>
    <vehicle id="gsndj_s4__0.16" type="car_1" depart="55.55" departLane="random">
        <route edges="gsndj_s4 29257863#5"/>
    </vehicle>
    <vehicle id="161701303#7.248__1.0" type="car_1" depart="61.16" departLane="random">
        <route edges="161701303#7.248 gsndj_n6"/>
    </vehicle>
    <vehicle id="gsndj_n7__1.0" type="car_1" depart="61.37" departLane="random">
        <route edges="gsndj_n7 gsndj_n6"/>
    </vehicle>
    <vehicle id="161701303#7.248__1.1" type="car_1" depart="61.68" departLane="random">
        <route edges="161701303#7.248 gsndj_n6"/>
    </vehicle>
    <vehicle id="gsndj_n7__1.1" type="car_1" depart="61.83" departLane="random">
        <route edges="gsndj_n7 29257863#5"/>
    </vehicle>
    <vehicle id="gsndj_s4__1.0" type="car_1" depart="65.19" departLane="random">
        <route edges="gsndj_s4 29257863#5"/>
    </vehicle>
    <vehicle id="gsndj_n7__1.2" type="car_1" depart="67.06" departLane="random">
        <route edges="gsndj_n7 29257863#5"/>
    </vehicle>
    <vehicle id="gsndj_s4__1.1" type="car_1" depart="67.56" departLane="random">
        <route edges="gsndj_s4 gsndj_s5"/>
    </vehicle>
    <vehicle id="gsndj_n7__1.3" type="car_1" depart="68.28" departLane="random">
        <route edges="gsndj_n7 gsndj_n6"/>
    </vehicle>
    <vehicle id="gsndj_n7__1.4" type="car_1" depart="68.29" departLane="random">
        <route edges="gsndj_n7 29257863#5"/>
    </vehicle>
    <vehicle id="gsndj_s4__1.2" type="car_1" depart="73.98" departLane="random">
        <route edges="gsndj_s4 29257863#5"/>
    </vehicle>
    <vehicle id="161701303#7.248__1.2" type="car_1" depart="74.81" departLane="random">
        <route edges="161701303#7.248 gsndj_n6"/>
    </vehicle>
    <vehicle id="gsndj_s4__1.3" type="car_1" depart="75.43" departLane="random">
        <route edges="gsndj_s4 gsndj_s5"/>
    </vehicle>
    <vehicle id="161701303#7.248__1.3" type="car_1" depart="76.22" departLane="random">
        <route edges="161701303#7.248 gsndj_s5"/>
    </vehicle>
    <vehicle id="gsndj_s4__1.4" type="car_1" depart="77.01" departLane="random">
        <route edges="gsndj_s4 29257863#5"/>
    </vehicle>
    <vehicle id="gsndj_s4__1.5" type="car_1" depart="79.99" departLane="random">
        <route edges="gsndj_s4 gsndj_s5"/>
    </vehicle>
    <vehicle id="gsndj_s4__1.6" type="car_1" depart="80.88" departLane="random">
        <route edges="gsndj_s4 gsndj_s5"/>
    </vehicle>
    <vehicle id="gsndj_s4__1.7" type="car_1" depart="82.54" departLane="random">
        <route edges="gsndj_s4 29257863#5"/>
    </vehicle>
    <vehicle id="161701303#7.248__1.4" type="car_1" depart="83.24" departLane="random">
        <route edges="161701303#7.248 gsndj_n6"/>
    </vehicle>
    <vehicle id="161701303#7.248__1.5" type="car_1" depart="85.37" departLane="random">
        <route edges="161701303#7.248 gsndj_s5"/>
    </vehicle>
    <vehicle id="161701303#7.248__1.6" type="car_1" depart="86.03" departLane="random">
        <route edges="161701303#7.248 gsndj_n6"/>
    </vehicle>
    <vehicle id="gsndj_n7__1.5" type="car_1" depart="88.18" departLane="random">
        <route edges="gsndj_n7 29257863#5"/>
    </vehicle>
    <vehicle id="gsndj_s4__1.8" type="car_1" depart="89.91" departLane="random">
        <route edges="gsndj_s4 gsndj_s5"/>
    </vehicle>
    <vehicle id="gsndj_s4__1.9" type="car_1" depart="90.09" departLane="random">
        <route edges="gsndj_s4 gsndj_s5"/>
    </vehicle>
    <vehicle id="gsndj_n7__1.6" type="car_1" depart="91.55" departLane="random">
        <route edges="gsndj_n7 29257863#5"/>
    </vehicle>
    <vehicle id="gsndj_s4__1.10" type="car_1" depart="95.42" departLane="random">
        <route edges="gsndj_s4 gsndj_s5"/>
    </vehicle>
    <vehicle id="gsndj_n7__1.7" type="car_1" depart="95.47" departLane="random">
        <route edges="gsndj_n7 gsndj_n6"/>
    </vehicle>
    <vehicle id="gsndj_n7__1.8" type="car_1" depart="96.70" departLane="random">
        <route edges="gsndj_n7 gsndj_n6"/>
    </vehicle>
    <vehicle id="161701303#7.248__1.7" type="car_1" depart="99.71" departLane="random">
        <route edges="161701303#7.248 gsndj_s5"/>
    </vehicle>
    <vehicle id="gsndj_n7__1.9" type="car_1" depart="100.26" departLane="random">
        <route edges="gsndj_n7 29257863#5"/>
    </vehicle>
    <vehicle id="gsndj_s4__1.11" type="car_1" depart="103.77" departLane="random">
        <route edges="gsndj_s4 gsndj_s5"/>
    </vehicle>
    <vehicle id="gsndj_s4__1.12" type="car_1" depart="104.50" departLane="random">
        <route edges="gsndj_s4 29257863#5"/>
    </vehicle>
    <vehicle id="gsndj_n7__1.10" type="car_1" depart="105.13" departLane="random">
        <route edges="gsndj_n7 gsndj_n6"/>
    </vehicle>
    <vehicle id="gsndj_n7__1.11" type="car_1" depart="109.44" departLane="random">
        <route edges="gsndj_n7 gsndj_n6"/>
    </vehicle>
    <vehicle id="161701303#7.248__1.8" type="car_1" depart="111.96" departLane="random">
        <route edges="161701303#7.248 gsndj_n6"/>
    </vehicle>
    <vehicle id="gsndj_s4__1.13" type="car_1" depart="112.57" departLane="random">
        <route edges="gsndj_s4 29257863#5"/>
    </vehicle>
    <vehicle id="gsndj_n7__1.12" type="car_1" depart="119.80" departLane="random">
        <route edges="gsndj_n7 gsndj_n6"/>
    </vehicle>
    <vehicle id="gsndj_s4__2.0" type="car_1" depart="121.27" departLane="random">
        <route edges="gsndj_s4 29257863#5"/>
    </vehicle>
    <vehicle id="gsndj_s4__2.1" type="car_1" depart="121.53" departLane="random">
        <route edges="gsndj_s4 gsndj_s5"/>
    </vehicle>
    <vehicle id="161701303#7.248__2.0" type="car_1" depart="123.63" departLane="random">
        <route edges="161701303#7.248 gsndj_n6"/>
    </vehicle>
    <vehicle id="gsndj_s4__2.2" type="car_1" depart="124.58" departLane="random">
        <route edges="gsndj_s4 gsndj_s5"/>
    </vehicle>
    <vehicle id="gsndj_n7__2.0" type="car_1" depart="127.35" departLane="random">
        <route edges="gsndj_n7 29257863#5"/>
    </vehicle>
    <vehicle id="gsndj_n7__2.1" type="car_1" depart="129.58" departLane="random">
        <route edges="gsndj_n7 gsndj_n6"/>
    </vehicle>
    <vehicle id="gsndj_n7__2.2" type="car_1" depart="130.03" departLane="random">
        <route edges="gsndj_n7 gsndj_n6"/>
    </vehicle>
    <vehicle id="gsndj_s4__2.3" type="car_1" depart="130.37" departLane="random">
        <route edges="gsndj_s4 gsndj_s5"/>
    </vehicle>
    <vehicle id="161701303#7.248__2.1" type="car_1" depart="133.90" departLane="random">
        <route edges="161701303#7.248 gsndj_s5"/>
    </vehicle>
    <vehicle id="gsndj_s4__2.4" type="car_1" depart="134.52" departLane="random">
        <route edges="gsndj_s4 29257863#5"/>
    </vehicle>
    <vehicle id="gsndj_n7__2.3" type="car_1" depart="136.43" departLane="random">
        <route edges="gsndj_n7 gsndj_n6"/>
    </vehicle>
    <vehicle id="gsndj_n7__2.4" type="car_1" depart="136.74" departLane="random">
        <route edges="gsndj_n7 29257863#5"/>
    </vehicle>
    <vehicle id="gsndj_n7__2.5" type="car_1" depart="138.44" departLane="random">
        <route edges="gsndj_n7 gsndj_n6"/>
    </vehicle>
    <vehicle id="gsndj_s4__2.5" type="car_1" depart="139.03" departLane="random">
        <route edges="gsndj_s4 29257863#5"/>
    </vehicle>
    <vehicle id="161701303#7.248__2.2" type="car_1" depart="139.18" departLane="random">
        <route edges="161701303#7.248 gsndj_n6"/>
    </vehicle>
    <vehicle id="gsndj_s4__2.6" type="car_1" depart="141.26" departLane="random">
        <route edges="gsndj_s4 29257863#5"/>
    </vehicle>
    <vehicle id="161701303#7.248__2.3" type="car_1" depart="142.84" departLane="random">
        <route edges="161701303#7.248 gsndj_n6"/>
    </vehicle>
    <vehicle id="gsndj_s4__2.7" type="car_1" depart="144.56" departLane="random">
        <route edges="gsndj_s4 gsndj_s5"/>
    </vehicle>
    <vehicle id="161701303#7.248__2.4" type="car_1" depart="148.63" departLane="random">
        <route edges="161701303#7.248 gsndj_s5"/>
    </vehicle>
    <vehicle id="161701303#7.248__2.5" type="car_1" depart="150.63" departLane="random">
        <route edges="161701303#7.248 gsndj_n6"/>
    </vehicle>
    <vehicle id="gsndj_s4__2.8" type="car_1" depart="151.58" departLane="random">
        <route edges="gsndj_s4 gsndj_s5"/>
    </vehicle>
    <vehicle id="gsndj_n7__2.6" type="car_1" depart="155.46" departLane="random">
        <route edges="gsndj_n7 gsndj_n6"/>
    </vehicle>
    <vehicle id="161701303#7.248__2.6" type="car_1" depart="157.61" departLane="random">
        <route edges="161701303#7.248 gsndj_s5"/>
    </vehicle>
    <vehicle id="gsndj_n7__2.7" type="car_1" depart="158.74" departLane="random">
        <route edges="gsndj_n7 29257863#5"/>
    </vehicle>
    <vehicle id="gsndj_s4__2.9" type="car_1" depart="159.54" departLane="random">
        <route edges="gsndj_s4 gsndj_s5"/>
    </vehicle>
    <vehicle id="gsndj_n7__2.8" type="car_1" depart="160.28" departLane="random">
        <route edges="gsndj_n7 29257863#5"/>
    </vehicle>
    <vehicle id="gsndj_n7__2.9" type="car_1" depart="163.30" departLane="random">
        <route edges="gsndj_n7 gsndj_n6"/>
    </vehicle>
    <vehicle id="gsndj_s4__2.10" type="car_1" depart="167.84" departLane="random">
        <route edges="gsndj_s4 gsndj_s5"/>
    </vehicle>
    <vehicle id="gsndj_n7__2.10" type="car_1" depart="167.89" departLane="random">
        <route edges="gsndj_n7 gsndj_n6"/>
    </vehicle>
    <vehicle id="gsndj_n7__2.11" type="car_1" depart="168.59" departLane="random">
        <route edges="gsndj_n7 gsndj_n6"/>
    </vehicle>
    <vehicle id="161701303#7.248__2.7" type="car_1" depart="169.38" departLane="random">
        <route edges="161701303#7.248 gsndj_n6"/>
    </vehicle>
    <vehicle id="161701303#7.248__2.8" type="car_1" depart="171.56" departLane="random">
        <route edges="161701303#7.248 gsndj_n6"/>
    </vehicle>
    <vehicle id="161701303#7.248__2.9" type="car_1" depart="171.76" departLane="random">
        <route edges="161701303#7.248 gsndj_n6"/>
    </vehicle>
    <vehicle id="gsndj_s4__2.11" type="car_1" depart="171.86" departLane="random">
        <route edges="gsndj_s4 29257863#5"/>
    </vehicle>
    <vehicle id="161701303#7.248__2.10" type="car_1" depart="172.02" departLane="random">
        <route edges="161701303#7.248 gsndj_n6"/>
    </vehicle>
    <vehicle id="gsndj_s4__2.12" type="car_1" depart="172.22" departLane="random">
        <route edges="gsndj_s4 gsndj_s5"/>
    </vehicle>
    <vehicle id="gsndj_s4__2.13" type="car_1" depart="177.41" departLane="random">
        <route edges="gsndj_s4 gsndj_s5"/>
    </vehicle>
    <vehicle id="gsndj_s4__2.14" type="car_1" depart="178.89" departLane="random">
        <route edges="gsndj_s4 29257863#5"/>
    </vehicle>
    <vehicle id="gsndj_n7__2.12" type="car_1" depart="179.46" departLane="random">
        <route edges="gsndj_n7 29257863#5"/>
    </vehicle>
    <vehicle id="gsndj_n7__3.0" type="car_1" depart="181.36" departLane="random">
        <route edges="gsndj_n7 gsndj_n6"/>
    </vehicle>
    <vehicle id="gsndj_s4__3.0" type="car_1" depart="183.13" departLane="random">
        <route edges="gsndj_s4 29257863#5"/>
    </vehicle>
    <vehicle id="gsndj_s4__3.1" type="car_1" depart="185.49" departLane="random">
        <route edges="gsndj_s4 29257863#5"/>
    </vehicle>
    <vehicle id="gsndj_s4__3.2" type="car_1" depart="187.91" departLane="random">
        <route edges="gsndj_s4 29257863#5"/>
    </vehicle>
    <vType id="car_2" length="6.00" color="155,89,182" tau="1.0"/>
    <vehicle id="161701303#7.248__3.0" type="car_2" depart="188.59" departLane="random">
        <route edges="161701303#7.248 gsndj_n6"/>
    </vehicle>
    <vehicle id="gsndj_s4__3.3" type="car_1" depart="191.32" departLane="random">
        <route edges="gsndj_s4 gsndj_s5"/>
    </vehicle>
    <vehicle id="gsndj_s4__3.4" type="car_1" depart="193.07" departLane="random">
        <route edges="gsndj_s4 gsndj_s5"/>
    </vehicle>
    <vehicle id="gsndj_s4__3.5" type="car_1" depart="193.55" departLane="random">
        <route edges="gsndj_s4 gsndj_s5"/>
    </vehicle>
    <vehicle id="gsndj_n7__3.1" type="car_1" depart="194.87" departLane="random">
        <route edges="gsndj_n7 gsndj_n6"/>
    </vehicle>
    <vehicle id="gsndj_n7__3.2" type="car_1" depart="194.98" departLane="random">
        <route edges="gsndj_n7 29257863#5"/>
    </vehicle>
    <vehicle id="gsndj_n7__3.3" type="car_1" depart="197.30" departLane="random">
        <route edges="gsndj_n7 29257863#5"/>
    </vehicle>
    <vehicle id="gsndj_s4__3.6" type="car_1" depart="197.31" departLane="random">
        <route edges="gsndj_s4 gsndj_s5"/>
    </vehicle>
    <vehicle id="gsndj_n7__3.4" type="car_1" depart="199.23" departLane="random">
        <route edges="gsndj_n7 gsndj_n6"/>
    </vehicle>
    <vehicle id="161701303#7.248__3.1" type="car_2" depart="201.86" departLane="random">
        <route edges="161701303#7.248 gsndj_n6"/>
    </vehicle>
    <vehicle id="gsndj_s4__3.7" type="car_1" depart="203.89" departLane="random">
        <route edges="gsndj_s4 29257863#5"/>
    </vehicle>
    <vehicle id="gsndj_n7__3.5" type="car_1" depart="204.23" departLane="random">
        <route edges="gsndj_n7 gsndj_n6"/>
    </vehicle>
    <vehicle id="161701303#7.248__3.2" type="car_2" depart="206.10" departLane="random">
        <route edges="161701303#7.248 gsndj_n6"/>
    </vehicle>
    <vehicle id="gsndj_s4__3.8" type="car_1" depart="208.06" departLane="random">
        <route edges="gsndj_s4 gsndj_s5"/>
    </vehicle>
    <vehicle id="gsndj_s4__3.9" type="car_1" depart="209.36" departLane="random">
        <route edges="gsndj_s4 29257863#5"/>
    </vehicle>
    <vehicle id="gsndj_n7__3.6" type="car_1" depart="210.32" departLane="random">
        <route edges="gsndj_n7 29257863#5"/>
    </vehicle>
    <vehicle id="161701303#7.248__3.3" type="car_2" depart="210.81" departLane="random">
        <route edges="161701303#7.248 gsndj_n6"/>
    </vehicle>
    <vehicle id="gsndj_n7__3.7" type="car_1" depart="212.08" departLane="random">
        <route edges="gsndj_n7 gsndj_n6"/>
    </vehicle>
    <vehicle id="gsndj_n7__3.8" type="car_1" depart="214.31" departLane="random">
        <route edges="gsndj_n7 29257863#5"/>
    </vehicle>
    <vehicle id="161701303#7.248__3.4" type="car_2" depart="215.98" departLane="random">
        <route edges="161701303#7.248 gsndj_n6"/>
    </vehicle>
    <vehicle id="161701303#7.248__3.5" type="car_2" depart="217.07" departLane="random">
        <route edges="161701303#7.248 gsndj_n6"/>
    </vehicle>
    <vehicle id="gsndj_s4__3.10" type="car_1" depart="219.70" departLane="random">
        <route edges="gsndj_s4 29257863#5"/>
    </vehicle>
    <vehicle id="161701303#7.248__3.6" type="car_2" depart="220.15" departLane="random">
        <route edges="161701303#7.248 gsndj_n6"/>
    </vehicle>
    <vehicle id="gsndj_n7__3.9" type="car_1" depart="220.72" departLane="random">
        <route edges="gsndj_n7 gsndj_n6"/>
    </vehicle>
    <vehicle id="gsndj_s4__3.11" type="car_1" depart="220.88" departLane="random">
        <route edges="gsndj_s4 gsndj_s5"/>
    </vehicle>
    <vehicle id="161701303#7.248__3.7" type="car_2" depart="221.98" departLane="random">
        <route edges="161701303#7.248 gsndj_n6"/>
    </vehicle>
    <vehicle id="161701303#7.248__3.8" type="car_2" depart="227.23" departLane="random">
        <route edges="161701303#7.248 gsndj_n6"/>
    </vehicle>
    <vehicle id="gsndj_n7__3.10" type="car_1" depart="227.82" departLane="random">
        <route edges="gsndj_n7 gsndj_n6"/>
    </vehicle>
    <vehicle id="gsndj_s4__3.12" type="car_1" depart="228.17" departLane="random">
        <route edges="gsndj_s4 29257863#5"/>
    </vehicle>
    <vehicle id="gsndj_n7__3.11" type="car_1" depart="228.65" departLane="random">
        <route edges="gsndj_n7 29257863#5"/>
    </vehicle>
    <vehicle id="gsndj_s4__3.13" type="car_1" depart="230.26" departLane="random">
        <route edges="gsndj_s4 gsndj_s5"/>
    </vehicle>
    <vehicle id="161701303#7.248__3.9" type="car_2" depart="233.92" departLane="random">
        <route edges="161701303#7.248 gsndj_s5"/>
    </vehicle>
    <vehicle id="gsndj_s4__3.14" type="car_1" depart="236.56" departLane="random">
        <route edges="gsndj_s4 gsndj_s5"/>
    </vehicle>
    <vehicle id="161701303#7.248__3.10" type="car_2" depart="237.63" departLane="random">
        <route edges="161701303#7.248 gsndj_s5"/>
    </vehicle>
    <vehicle id="gsndj_s4__4.0" type="car_1" depart="242.61" departLane="random">
        <route edges="gsndj_s4 gsndj_s5"/>
    </vehicle>
    <vehicle id="gsndj_s4__4.1" type="car_1" depart="242.85" departLane="random">
        <route edges="gsndj_s4 gsndj_s5"/>
    </vehicle>
    <vehicle id="gsndj_n7__4.0" type="car_1" depart="243.68" departLane="random">
        <route edges="gsndj_n7 29257863#5"/>
    </vehicle>
    <vehicle id="gsndj_n7__4.1" type="car_1" depart="244.45" departLane="random">
        <route edges="gsndj_n7 gsndj_n6"/>
    </vehicle>
    <vehicle id="gsndj_s4__4.2" type="car_1" depart="246.12" departLane="random">
        <route edges="gsndj_s4 gsndj_s5"/>
    </vehicle>
    <vehicle id="gsndj_s4__4.3" type="car_1" depart="247.93" departLane="random">
        <route edges="gsndj_s4 29257863#5"/>
    </vehicle>
    <vehicle id="gsndj_n7__4.2" type="car_1" depart="257.49" departLane="random">
        <route edges="gsndj_n7 29257863#5"/>
    </vehicle>
    <vehicle id="161701303#7.248__4.0" type="car_1" depart="259.26" departLane="random">
        <route edges="161701303#7.248 gsndj_n6"/>
    </vehicle>
    <vehicle id="gsndj_s4__4.4" type="car_1" depart="262.86" departLane="random">
        <route edges="gsndj_s4 29257863#5"/>
    </vehicle>
    <vehicle id="gsndj_s4__4.5" type="car_1" depart="264.89" departLane="random">
        <route edges="gsndj_s4 29257863#5"/>
    </vehicle>
    <vehicle id="161701303#7.248__4.1" type="car_1" depart="265.03" departLane="random">
        <route edges="161701303#7.248 gsndj_n6"/>
    </vehicle>
    <vehicle id="gsndj_n7__4.3" type="car_1" depart="266.56" departLane="random">
        <route edges="gsndj_n7 gsndj_n6"/>
    </vehicle>
    <vehicle id="161701303#7.248__4.2" type="car_1" depart="267.02" departLane="random">
        <route edges="161701303#7.248 gsndj_n6"/>
    </vehicle>
    <vehicle id="gsndj_n7__4.4" type="car_1" depart="269.12" departLane="random">
        <route edges="gsndj_n7 gsndj_n6"/>
    </vehicle>
    <vehicle id="gsndj_s4__4.6" type="car_1" depart="269.22" departLane="random">
        <route edges="gsndj_s4 29257863#5"/>
    </vehicle>
    <vehicle id="gsndj_s4__4.7" type="car_1" depart="269.33" departLane="random">
        <route edges="gsndj_s4 29257863#5"/>
    </vehicle>
    <vehicle id="gsndj_s4__4.8" type="car_1" depart="272.22" departLane="random">
        <route edges="gsndj_s4 29257863#5"/>
    </vehicle>
    <vehicle id="gsndj_n7__4.5" type="car_1" depart="273.30" departLane="random">
        <route edges="gsndj_n7 gsndj_n6"/>
    </vehicle>
    <vehicle id="gsndj_n7__4.6" type="car_1" depart="274.88" departLane="random">
        <route edges="gsndj_n7 29257863#5"/>
    </vehicle>
    <vehicle id="gsndj_n7__4.7" type="car_1" depart="275.58" departLane="random">
        <route edges="gsndj_n7 gsndj_n6"/>
    </vehicle>
    <vehicle id="161701303#7.248__4.3" type="car_1" depart="275.66" departLane="random">
        <route edges="161701303#7.248 gsndj_n6"/>
    </vehicle>
    <vehicle id="gsndj_n7__4.8" type="car_1" depart="279.33" departLane="random">
        <route edges="gsndj_n7 gsndj_n6"/>
    </vehicle>
    <vehicle id="161701303#7.248__4.4" type="car_1" depart="280.33" departLane="random">
        <route edges="161701303#7.248 gsndj_n6"/>
    </vehicle>
    <vehicle id="gsndj_s4__4.9" type="car_1" depart="280.93" departLane="random">
        <route edges="gsndj_s4 29257863#5"/>
    </vehicle>
    <vehicle id="161701303#7.248__4.5" type="car_1" depart="282.30" departLane="random">
        <route edges="161701303#7.248 gsndj_n6"/>
    </vehicle>
    <vehicle id="gsndj_n7__4.9" type="car_1" depart="284.87" departLane="random">
        <route edges="gsndj_n7 gsndj_n6"/>
    </vehicle>
    <vehicle id="gsndj_s4__4.10" type="car_1" depart="285.18" departLane="random">
        <route edges="gsndj_s4 gsndj_s5"/>
    </vehicle>
    <vehicle id="gsndj_s4__4.11" type="car_1" depart="287.51" departLane="random">
        <route edges="gsndj_s4 gsndj_s5"/>
    </vehicle>
    <vehicle id="gsndj_s4__4.12" type="car_1" depart="292.65" departLane="random">
        <route edges="gsndj_s4 gsndj_s5"/>
    </vehicle>
    <vehicle id="161701303#7.248__4.6" type="car_1" depart="292.76" departLane="random">
        <route edges="161701303#7.248 gsndj_n6"/>
    </vehicle>
    <vehicle id="161701303#7.248__4.7" type="car_1" depart="293.68" departLane="random">
        <route edges="161701303#7.248 gsndj_n6"/>
    </vehicle>
    <vehicle id="gsndj_s4__4.13" type="car_1" depart="295.18" departLane="random">
        <route edges="gsndj_s4 gsndj_s5"/>
    </vehicle>
    <vehicle id="gsndj_n7__4.10" type="car_1" depart="296.39" departLane="random">
        <route edges="gsndj_n7 gsndj_n6"/>
    </vehicle>
    <vehicle id="gsndj_n7__4.11" type="car_1" depart="296.42" departLane="random">
        <route edges="gsndj_n7 29257863#5"/>
    </vehicle>
    <vehicle id="161701303#7.248__4.8" type="car_1" depart="298.57" departLane="random">
        <route edges="161701303#7.248 gsndj_s5"/>
    </vehicle>
    <vehicle id="gsndj_n7__4.12" type="car_1" depart="299.12" departLane="random">
        <route edges="gsndj_n7 gsndj_n6"/>
    </vehicle>
    <vehicle id="161701303#7.248__4.9" type="car_1" depart="299.75" departLane="random">
        <route edges="161701303#7.248 gsndj_n6"/>
    </vehicle>
    <vehicle id="gsndj_s4__5.0" type="car_1" depart="300.64" departLane="random">
        <route edges="gsndj_s4 29257863#5"/>
    </vehicle>
    <vehicle id="gsndj_n7__5.0" type="car_1" depart="302.05" departLane="random">
        <route edges="gsndj_n7 gsndj_n6"/>
    </vehicle>
    <vehicle id="gsndj_s4__5.1" type="car_1" depart="304.29" departLane="random">
        <route edges="gsndj_s4 gsndj_s5"/>
    </vehicle>
    <vehicle id="gsndj_s4__5.2" type="car_1" depart="305.01" departLane="random">
        <route edges="gsndj_s4 29257863#5"/>
    </vehicle>
    <vehicle id="gsndj_n7__5.1" type="car_1" depart="305.37" departLane="random">
        <route edges="gsndj_n7 gsndj_n6"/>
    </vehicle>
    <vehicle id="gsndj_n7__5.2" type="car_1" depart="306.00" departLane="random">
        <route edges="gsndj_n7 29257863#5"/>
    </vehicle>
    <vehicle id="gsndj_s4__5.3" type="car_1" depart="306.38" departLane="random">
        <route edges="gsndj_s4 gsndj_s5"/>